2024_89_CemigReconfigurationCases/1_AlimsCemig/COJ08/COJ08SegmentosMT.dss
new line.TR12119365 bus1=BMT1527420B.2,bus2=BMT8711926B.2,Phases=1,Linecode=CAB102_3_1,Length=0.021548000,Units=km
new line.TR12119366 bus1=BMT8711926B.2,bus2=BMT148644783.2,Phases=1,Linecode=CAB102_3_1,Length=0.028663000,Units=km
new line.TR12123879 bus1=BMT1531081B.2,bus2=BMT1531165B.2,Phases=1,Linecode=CABA06_3_1,Length=0.031316000,Units=km
new line.TR12123882 bus1=BMT148644784.2,bus2=BMT148644786.2,Phases=1,Linecode=CABA06_3_1,Length=0.044737000,Units=km
new line.TR12123907 bus1=BMT1531165B.2,bus2=BMT8716826B.2,Phases=1,Linecode=CABA06_3_1,Length=0.033553000,Units=km
new line.TR12123908 bus1=BMT8716826B.2,bus2=BMT148644785.2,Phases=1,Linecode=CABA06_3_1,Length=0.030882000,Units=km
new line.TR12123998 bus1=BMT148644784.2,bus2=BMT8716914B.2,Phases=1,Linecode=CAB102_3_1,Length=0.034451000,Units=km
new line.TR12123999 bus1=BMT1527364B.2,bus2=BMT8716914B.2,Phases=1,Linecode=CAB102_3_1,Length=0.034898000,Units=km
new line.TR12124200 bus1=BMT121197024.1.2.3,bus2=BMT1530703B.1.2.3,Phases=3,Linecode=CABA06_3_3,Length=0.035860000,Units=km
new line.TR12124201 bus1=BMT1530703B.1.2.3,bus2=BMT1530682B.1.2.3,Phases=3,Linecode=CABA06_3_3,Length=0.035790000,Units=km
new line.TR12124202 bus1=BMT1530682B.1.2.3,bus2=BMT162984422.1.2.3,Phases=3,Linecode=CABA06_3_3,Length=0.033118000,Units=km
new line.TR12124203 bus1=BMT162984422.1.2.3,bus2=BMT3347077B.1.2.3,Phases=3,Linecode=CABA06_3_3,Length=0.045204000,Units=km
new line.TR12124204 bus1=BMT3347077B.1.2.3,bus2=BMT6718207B.1.2.3,Phases=3,Linecode=CABA06_3_3,Length=0.023268000,Units=km
new line.TR12124205 bus1=BMT6718207B.1.2.3,bus2=BMT6718214B.1.2.3,Phases=3,Linecode=CABA06_3_3,Length=0.034451000,Units=km
new line.TR12145951 bus1=BMT160253977.2,bus2=BMT160253979.2,Phases=1,Linecode=CAB202_3_1,Length=0.105056000,Units=km
new line.TR12172717 bus1=BMT172704244.2,bus2=BMT1536737B.2,Phases=1,Linecode=CABA06_3_1,Length=0.039713000,Units=km
new line.TR12172718 bus1=BMT1536737B.2,bus2=BMT1536744B.2,Phases=1,Linecode=CABA06_3_1,Length=0.034217000,Units=km
new line.TR12172719 bus1=BMT1536744B.2,bus2=BMT172704246.2,Phases=1,Linecode=CABA06_3_1,Length=0.044061000,Units=km
new line.TR12173197 bus1=BMT167293345.2,bus2=BMT3747694B.2,Phases=1,Linecode=CABA06_3_1,Length=0.031918000,Units=km
new line.TR12173198 bus1=BMT3747694B.2,bus2=BMT3747701B.2,Phases=1,Linecode=CABA06_3_1,Length=0.029165000,Units=km
new line.TR12173199 bus1=BMT3747701B.2,bus2=BMT8771697B.2,Phases=1,Linecode=CABA06_3_1,Length=0.035523000,Units=km
new line.TR12173200 bus1=BMT8771697B.2,bus2=BMT7829478B.2,Phases=1,Linecode=CABA06_3_1,Length=0.036068000,Units=km
new line.TR12173201 bus1=BMT7829478B.2,bus2=BMT8771698B.2,Phases=1,Linecode=CABA06_3_1,Length=0.034682000,Units=km
new line.TR12173202 bus1=BMT8771698B.2,bus2=BMT167293347.2,Phases=1,Linecode=CABA06_3_1,Length=0.031634000,Units=km
new line.TR12174900 bus1=BMT167293354.2,bus2=BMT167293356.2,Phases=1,Linecode=CABA06_3_1,Length=0.039308000,Units=km
new line.TR12176445 bus1=BMT167293349.2,bus2=BMT5598095B.2,Phases=1,Linecode=CABA06_3_1,Length=0.045027000,Units=km
new line.TR12176446 bus1=BMT5598095B.2,bus2=BMT8775362B.2,Phases=1,Linecode=CABA06_3_1,Length=0.025009000,Units=km
new line.TR12176447 bus1=BMT8775362B.2,bus2=BMT167293351.2,Phases=1,Linecode=CABA06_3_1,Length=0.036013000,Units=km
new line.TR12178264 bus1=BMT155137065.1.2.3,bus2=BMT2514364B.1.2.3,Phases=3,Linecode=CABA06_3_3,Length=0.038092000,Units=km
new line.TR12178265 bus1=BMT2514364B.1.2.3,bus2=BMT3346930B.1.2.3,Phases=3,Linecode=CABA06_3_3,Length=0.030425000,Units=km
new line.TR12178268 bus1=BMT3346930B.1.2.3,bus2=BMT155137066.1.2.3,Phases=3,Linecode=CABA06_3_3,Length=0.020132000,Units=km
new line.TR12178269 bus1=BMT155137066.1.2.3,bus2=BMT4899817B.1.2.3,Phases=3,Linecode=CABA06_3_3,Length=0.053731000,Units=km
new line.TR12178272 bus1=BMT4899817B.1.2.3,bus2=BMT155137067.1.2.3,Phases=3,Linecode=CABA06_3_3,Length=0.042062000,Units=km
new line.TR12178274 bus1=BMT155137066.1.2.3,bus2=BMT3346937B.1.2.3,Phases=3,Linecode=CABA06_3_3,Length=0.026842000,Units=km
new line.TR12178276 bus1=BMT3346937B.1.2.3,bus2=BMT3346944B.1.2.3,Phases=3,Linecode=CABA06_3_3,Length=0.037590000,Units=km
new line.TR12178308 bus1=BMT3346944B.1.2.3,bus2=BMT3346951B.1.2.3,Phases=3,Linecode=CABA06_3_3,Length=0.031792000,Units=km
new line.TR12178314 bus1=BMT3346951B.1.2.3,bus2=BMT8777273B.1.2.3,Phases=3,Linecode=CABA06_3_3,Length=0.024092000,Units=km
new line.TR12178324 bus1=BMT8777273B.1.2.3,bus2=BMT155137068.1.2.3,Phases=3,Linecode=CABA06_3_3,Length=0.043062000,Units=km
new line.TR12178345 bus1=BMT155137068.1.2.3,bus2=BMT8777320B.1.2.3,Phases=3,Linecode=CABA06_3_3,Length=0.043282000,Units=km
new line.TR12178405 bus1=BMT8777320B.1.2.3,bus2=BMT8777346B.1.2.3,Phases=3,Linecode=CABA06_3_3,Length=0.043581000,Units=km
new line.TR12178407 bus1=BMT8777346B.1.2.3,bus2=BMT8777347B.1.2.3,Phases=3,Linecode=CABA06_3_3,Length=0.044118000,Units=km
new line.TR12178412 bus1=BMT8777347B.1.2.3,bus2=BMT8777359B.1.2.3,Phases=3,Linecode=CABA06_3_3,Length=0.044118000,Units=km
new line.TR12178418 bus1=BMT8777359B.1.2.3,bus2=BMT8777364B.1.2.3,Phases=3,Linecode=CABA06_3_3,Length=0.043924000,Units=km
new line.TR12178446 bus1=BMT8777364B.1.2.3,bus2=BMT155137069.1.2.3,Phases=3,Linecode=CABA06_3_3,Length=0.043845000,Units=km
new line.TR12178473 bus1=BMT155137069.1.2.3,bus2=BMT8777373B.1.2.3,Phases=3,Linecode=CABA06_3_3,Length=0.044434000,Units=km
new line.TR12178476 bus1=BMT8777373B.1.2.3,bus2=BMT155137070.1.2.3,Phases=3,Linecode=CABA06_3_3,Length=0.044118000,Units=km
new line.TR12241916 bus1=BMT3897851B.1.2.3,bus2=BMT164632334.1.2.3,Phases=3,Linecode=CABA06_3_3,Length=0.046664000,Units=km
new line.TR12241926 bus1=BMT1536492B.1.2.3,bus2=BMT8843700B.1.2.3,Phases=3,Linecode=CABA06_3_3,Length=0.023862000,Units=km
new line.TR12241927 bus1=BMT3897830B.1.2.3,bus2=BMT8843700B.1.2.3,Phases=3,Linecode=CABA06_3_3,Length=0.022480000,Units=km
new line.TR12241928 bus1=BMT3897830B.1.2.3,bus2=BMT8843704B.1.2.3,Phases=3,Linecode=CABA06_3_3,Length=0.022480000,Units=km
new line.TR12241929 bus1=BMT3897837B.1.2.3,bus2=BMT8843704B.1.2.3,Phases=3,Linecode=CABA06_3_3,Length=0.024707000,Units=km
new line.TR12241930 bus1=BMT3897837B.1.2.3,bus2=BMT8843705B.1.2.3,Phases=3,Linecode=CABA06_3_3,Length=0.023862000,Units=km
new line.TR12241931 bus1=BMT3897844B.1.2.3,bus2=BMT8843705B.1.2.3,Phases=3,Linecode=CABA06_3_3,Length=0.023862000,Units=km
new line.TR12241933 bus1=BMT3897844B.1.2.3,bus2=BMT8843711B.1.2.3,Phases=3,Linecode=CABA06_3_3,Length=0.021641000,Units=km
new line.TR12241934 bus1=BMT3897851B.1.2.3,bus2=BMT8843711B.1.2.3,Phases=3,Linecode=CABA06_3_3,Length=0.021103000,Units=km
new line.TR12241944 bus1=BMT164632333.1.2.3,bus2=BMT1536492B.1.2.3,Phases=3,Linecode=CABA06_3_3,Length=0.045809000,Units=km
new line.TR12268717 bus1=BMT160084999.2,bus2=BMT160085002.2,Phases=1,Linecode=CAB202_3_1,Length=0.038614000,Units=km
new line.TR12273034 bus1=BMT8460472B.1,bus2=BMT153853222.1,Phases=1,Linecode=CAB202_3_1,Length=0.054149000,Units=km
new line.TR12273035 bus1=BMT153853222.1,bus2=BMT170891795.1,Phases=1,Linecode=CAB202_3_1,Length=0.056536000,Units=km
new line.TR12273076 bus1=BMT169999727.1,bus2=BMT8876668B.1,Phases=1,Linecode=CAB202_3_1,Length=0.095517000,Units=km
new line.TR12273078 bus1=BMT8876668B.1,bus2=BMT8876671B.1,Phases=1,Linecode=CAB202_3_1,Length=0.117498000,Units=km
new line.TR12273079 bus1=BMT8876671B.1,bus2=BMT8876673B.1,Phases=1,Linecode=CAB202_3_1,Length=0.024768000,Units=km
new line.TR12273081 bus1=BMT8876673B.1,bus2=BMT8876681B.1,Phases=1,Linecode=CAB202_3_1,Length=0.109875000,Units=km
new line.TR12273082 bus1=BMT8876681B.1,bus2=BMT8876686B.1,Phases=1,Linecode=CAB202_3_1,Length=0.110184000,Units=km
new line.TR12273083 bus1=BMT8876686B.1,bus2=BMT8876687B.1,Phases=1,Linecode=CAB202_3_1,Length=0.099679000,Units=km
new line.TR12273084 bus1=BMT8876687B.1,bus2=BMT8876688B.1,Phases=1,Linecode=CAB202_3_1,Length=0.090459000,Units=km
new line.TR12273085 bus1=BMT8876688B.1,bus2=BMT8876693B.1,Phases=1,Linecode=CAB202_3_1,Length=0.090834000,Units=km
new line.TR12273086 bus1=BMT8876693B.1,bus2=BMT8876696B.1,Phases=1,Linecode=CAB202_3_1,Length=0.132745000,Units=km
new line.TR12273087 bus1=BMT8876696B.1,bus2=BMT169999728.1,Phases=1,Linecode=CAB202_3_1,Length=0.127395000,Units=km
new line.TR12311310 bus1=BMT160252779.2,bus2=BMT160252781.2,Phases=1,Linecode=CAB202_3_1,Length=0.125007000,Units=km
new line.TR12372705 bus1=BMT1528659B.1,bus2=BMT8978061B.1,Phases=1,Linecode=CABA06_3_1,Length=0.036891000,Units=km
new line.TR12372707 bus1=BMT8978061B.1,bus2=BMT8978062B.1,Phases=1,Linecode=CABA06_3_1,Length=0.037121000,Units=km
new line.TR12372708 bus1=BMT8978062B.1,bus2=BMT1537535B.1,Phases=1,Linecode=CABA06_3_1,Length=0.040276000,Units=km
new line.TR12372709 bus1=BMT169999717.1,bus2=BMT8978063B.1,Phases=1,Linecode=CABA06_3_1,Length=0.044927000,Units=km
new line.TR12372711 bus1=BMT8978063B.1,bus2=BMT8978064B.1,Phases=1,Linecode=CABA06_3_1,Length=0.044927000,Units=km
new line.TR12372712 bus1=BMT8978064B.1,bus2=BMT169999719.1,Phases=1,Linecode=CABA06_3_1,Length=0.042217000,Units=km
new line.TR12450480 bus1=BMT172574474.2,bus2=BMT9058469B.2,Phases=1,Linecode=CAB202_3_1,Length=0.075499000,Units=km
new line.TR12450481 bus1=BMT9058469B.2,bus2=BMT9058470B.2,Phases=1,Linecode=CAB202_3_1,Length=0.126524000,Units=km
new line.TR12450482 bus1=BMT9058470B.2,bus2=BMT9058472B.2,Phases=1,Linecode=CAB202_3_1,Length=0.069667000,Units=km
new line.TR12450483 bus1=BMT9058472B.2,bus2=BMT9058473B.2,Phases=1,Linecode=CAB202_3_1,Length=0.077229000,Units=km
new line.TR12450484 bus1=BMT9058473B.2,bus2=BMT9058474B.2,Phases=1,Linecode=CAB202_3_1,Length=0.100723000,Units=km
new line.TR12450485 bus1=BMT9058474B.2,bus2=BMT9058476B.2,Phases=1,Linecode=CAB202_3_1,Length=0.090282000,Units=km
new line.TR12450486 bus1=BMT9058476B.2,bus2=BMT9058477B.2,Phases=1,Linecode=CAB202_3_1,Length=0.100917000,Units=km
new line.TR12450487 bus1=BMT9058477B.2,bus2=BMT9058478B.2,Phases=1,Linecode=CAB202_3_1,Length=0.091739000,Units=km
new line.TR12450488 bus1=BMT9058478B.2,bus2=BMT9058479B.2,Phases=1,Linecode=CAB202_3_1,Length=0.088632000,Units=km
new line.TR12450489 bus1=BMT9058479B.2,bus2=BMT9058480B.2,Phases=1,Linecode=CAB202_3_1,Length=0.089138000,Units=km
new line.TR12450490 bus1=BMT9058480B.2,bus2=BMT9058481B.2,Phases=1,Linecode=CAB202_3_1,Length=0.089709000,Units=km
new line.TR12450491 bus1=BMT9058481B.2,bus2=BMT9058483B.2,Phases=1,Linecode=CAB202_3_1,Length=0.088987000,Units=km
new line.TR12450492 bus1=BMT9058483B.2,bus2=BMT9058485B.2,Phases=1,Linecode=CAB202_3_1,Length=0.108942000,Units=km
new line.TR12450493 bus1=BMT9058485B.2,bus2=BMT9058486B.2,Phases=1,Linecode=CAB202_3_1,Length=0.098040000,Units=km
new line.TR12450494 bus1=BMT9058486B.2,bus2=BMT9058490B.2,Phases=1,Linecode=CAB202_3_1,Length=0.103429000,Units=km
new line.TR12450495 bus1=BMT9058490B.2,bus2=BMT9058491B.2,Phases=1,Linecode=CAB202_3_1,Length=0.103618000,Units=km
new line.TR12458226 bus1=BMT1532894B.1,bus2=BMT9066737B.1,Phases=1,Linecode=CAB102_3_1,Length=0.018364000,Units=km
new line.TR12458227 bus1=BMT9066737B.1,bus2=BMT171450934.1,Phases=1,Linecode=CAB102_3_1,Length=0.016131000,Units=km
new line.TR12458826 bus1=BMT167293350.2,bus2=BMT167293353.2,Phases=1,Linecode=CABA06_3_1,Length=0.045623000,Units=km
new line.TR12479937 bus1=BMT167293347.2,bus2=BMT8771700B.2,Phases=1,Linecode=CABA06_3_1,Length=0.035523000,Units=km
new line.TR12479946 bus1=BMT8771700B.2,bus2=BMT8771701B.2,Phases=1,Linecode=CABA06_3_1,Length=0.034422000,Units=km
new line.TR12479950 bus1=BMT8771701B.2,bus2=BMT9089809B.2,Phases=1,Linecode=CABA06_3_1,Length=0.031918000,Units=km
new line.TR12479953 bus1=BMT9089809B.2,bus2=BMT5298327B.2,Phases=1,Linecode=CABA06_3_1,Length=0.026410000,Units=km
new line.TR12479973 bus1=BMT5298327B.2,bus2=BMT9089826B.2,Phases=1,Linecode=CABA06_3_1,Length=0.031076000,Units=km
new line.TR12479975 bus1=BMT9089826B.2,bus2=BMT167293348.2,Phases=1,Linecode=CABA06_3_1,Length=0.031076000,Units=km
new line.TR12509840 bus1=BMT163588414.1.2.3,bus2=BMT5453832B.1.2.3,Phases=3,Linecode=CABA06_3_3,Length=0.034538000,Units=km
new line.TR12509852 bus1=BMT5453832B.1.2.3,bus2=BMT5453839B.1.2.3,Phases=3,Linecode=CABA06_3_3,Length=0.043432000,Units=km
new line.TR12509873 bus1=BMT5453839B.1.2.3,bus2=BMT5453846B.1.2.3,Phases=3,Linecode=CABA06_3_3,Length=0.042594000,Units=km
new line.TR12509889 bus1=BMT5453846B.1.2.3,bus2=BMT8669793B.1.2.3,Phases=3,Linecode=CABA06_3_3,Length=0.033627000,Units=km
new line.TR12509890 bus1=BMT8669793B.1.2.3,bus2=BMT9118657B.1.2.3,Phases=3,Linecode=CABA06_3_3,Length=0.026936000,Units=km
new line.TR12509891 bus1=BMT9118657B.1.2.3,bus2=BMT9118662B.1.2.3,Phases=3,Linecode=CABA06_3_3,Length=0.026009000,Units=km
new line.TR12509892 bus1=BMT9118662B.1.2.3,bus2=BMT163588415.1.2.3,Phases=3,Linecode=CABA06_3_3,Length=0.036262000,Units=km
new line.TR12510352 bus1=BMT169999719.1,bus2=BMT9118969B.1,Phases=1,Linecode=CABA06_3_1,Length=0.031412000,Units=km
new line.TR12510353 bus1=BMT9118969B.1,bus2=BMT9118971B.1,Phases=1,Linecode=CABA06_3_1,Length=0.030817000,Units=km
new line.TR12510356 bus1=BMT9118971B.1,bus2=BMT9118978B.1,Phases=1,Linecode=CABA06_3_1,Length=0.035706000,Units=km
new line.TR12510359 bus1=BMT9118978B.1,bus2=BMT5117293B.1,Phases=1,Linecode=CABA06_3_1,Length=0.034941000,Units=km
new line.TR12510369 bus1=BMT5117293B.1,bus2=BMT9118986B.1,Phases=1,Linecode=CABA06_3_1,Length=0.031587000,Units=km
new line.TR12510372 bus1=BMT9118986B.1,bus2=BMT7857289B.1,Phases=1,Linecode=CABA06_3_1,Length=0.030605000,Units=km
new line.TR12510373 bus1=BMT7857289B.1,bus2=BMT7857310B.1,Phases=1,Linecode=CABA06_3_1,Length=0.025504000,Units=km
new line.TR12510388 bus1=BMT7857310B.1,bus2=BMT162888960.1,Phases=1,Linecode=CABA06_3_1,Length=0.027469000,Units=km
new line.TR12510396 bus1=BMT170891789.1,bus2=BMT170891790.1,Phases=1,Linecode=CABA06_3_1,Length=0.051018000,Units=km
new line.TR12551635 bus1=BMT164632285.2,bus2=BMT9160629B.2,Phases=1,Linecode=CAB103_3_1,Length=0.022812000,Units=km
new line.TR12551636 bus1=BMT9160629B.2,bus2=BMT1536933B.2,Phases=1,Linecode=CAB103_3_1,Length=0.013607000,Units=km
new line.TR12627107 bus1=BMT167293355.2,bus2=BMT8628395B.2,Phases=1,Linecode=CABA06_3_1,Length=0.035184000,Units=km
new line.TR12627108 bus1=BMT8628395B.2,bus2=BMT9082376B.2,Phases=1,Linecode=CABA06_3_1,Length=0.040622000,Units=km
new line.TR12627109 bus1=BMT9082376B.2,bus2=BMT9082377B.2,Phases=1,Linecode=CABA06_3_1,Length=0.042594000,Units=km
new line.TR12627110 bus1=BMT9082377B.2,bus2=BMT167293357.2,Phases=1,Linecode=CABA06_3_1,Length=0.035706000,Units=km
new line.TR12641034 bus1=BMT162756154.1.2.3,bus2=BMT167749520.1.2.3,Phases=3,Linecode=CAB107_3_3,Length=0.012211000,Units=km
new line.TR12641038 bus1=BMT167749520.1.2.3,bus2=BMT167749491.1.2.3,Phases=3,Linecode=CAB107_3_3,Length=0.008606000,Units=km
new line.TR12641047 bus1=BMT171231771.1.2.3,bus2=BMT8247812B.1.2.3,Phases=3,Linecode=CABA08_3_3,Length=0.021479000,Units=km
new line.TR12641048 bus1=BMT8247812B.1.2.3,bus2=BMT162398141.1.2.3,Phases=3,Linecode=CABA08_3_3,Length=0.022212000,Units=km
new line.TR12641066 bus1=BMT167749491.1.2.3,bus2=BMT167749589.1.2.3,Phases=3,Linecode=CAB107_3_3,Length=0.009438000,Units=km
new line.TR12697363 bus1=BMT169601353.2,bus2=BMT9305780B.2,Phases=1,Linecode=CAB103_3_1,Length=0.035915000,Units=km
new line.TR12697364 bus1=BMT9305780B.2,bus2=BMT169601355.2,Phases=1,Linecode=CAB103_3_1,Length=0.033553000,Units=km
new line.TR12699509 bus1=BMT169675772.2,bus2=BMT9307906B.2,Phases=1,Linecode=CAB202_3_1,Length=0.011004000,Units=km
new line.TR12699511 bus1=BMT9307906B.2,bus2=BMT9307908B.2,Phases=1,Linecode=CAB202_3_1,Length=0.122108000,Units=km
new line.TR12699512 bus1=BMT9307908B.2,bus2=BMT169675774.2,Phases=1,Linecode=CAB202_3_1,Length=0.171480000,Units=km
new line.TR12720840 bus1=BMT170371745.1.2.3,bus2=BMT170371748.1.2.3,Phases=3,Linecode=CABA06_3_3,Length=0.036783000,Units=km
new line.TR12735143 bus1=BMT170877111.1.2.3,bus2=BMT170877112.1.2.3,Phases=3,Linecode=CABA06_3_3,Length=0.024092000,Units=km
new line.TR12742190 bus1=BMT172636422.1,bus2=BMT172636424.1,Phases=1,Linecode=CAB202_3_1,Length=0.071137000,Units=km
new line.TR12752828 bus1=BMT171498561.1.2.3,bus2=BMT9359041B.1.2.3,Phases=3,Linecode=CAB104_3_3,Length=0.018034000,Units=km
new line.TR12752829 bus1=BMT9359041B.1.2.3,bus2=BMT121196401.1.2.3,Phases=3,Linecode=CAB104_3_3,Length=0.018255000,Units=km
new line.TR12781351 bus1=BMT172435350.1.2.3,bus2=BMT2840018B.1.2.3,Phases=3,Linecode=CABA06_3_3,Length=0.011185000,Units=km
new line.TR12781355 bus1=BMT2840039B.1.2.3,bus2=BMT172435351.1.2.3,Phases=3,Linecode=CABA06_3_3,Length=0.042559000,Units=km
new line.TR12781356 bus1=BMT2840018B.1.2.3,bus2=BMT9383410B.1.2.3,Phases=3,Linecode=CABA06_3_3,Length=0.023778000,Units=km
new line.TR12781357 bus1=BMT9383410B.1.2.3,bus2=BMT2840025B.1.2.3,Phases=3,Linecode=CABA06_3_3,Length=0.021031000,Units=km
new line.TR12781358 bus1=BMT2840025B.1.2.3,bus2=BMT9383411B.1.2.3,Phases=3,Linecode=CABA06_3_3,Length=0.024175000,Units=km
new line.TR12781359 bus1=BMT9383411B.1.2.3,bus2=BMT2840032B.1.2.3,Phases=3,Linecode=CABA06_3_3,Length=0.026410000,Units=km
new line.TR12781360 bus1=BMT2840032B.1.2.3,bus2=BMT9383412B.1.2.3,Phases=3,Linecode=CABA06_3_3,Length=0.027741000,Units=km
new line.TR12781361 bus1=BMT9383412B.1.2.3,bus2=BMT2840039B.1.2.3,Phases=3,Linecode=CABA06_3_3,Length=0.024175000,Units=km
new line.TR12785758 bus1=BMT9058491B.2,bus2=BMT172574475.2,Phases=1,Linecode=CAB202_3_1,Length=0.057029000,Units=km
new line.TR12785759 bus1=BMT172574475.2,bus2=BMT172574476.2,Phases=1,Linecode=CAB202_3_1,Length=0.043696000,Units=km
new line.TR12785771 bus1=BMT172574475.2,bus2=BMT9387297B.2,Phases=1,Linecode=CAB202_3_1,Length=0.060230000,Units=km
new line.TR12785774 bus1=BMT9387297B.2,bus2=BMT9387298B.2,Phases=1,Linecode=CAB202_3_1,Length=0.108850000,Units=km
new line.TR12785776 bus1=BMT9387298B.2,bus2=BMT9387300B.2,Phases=1,Linecode=CAB202_3_1,Length=0.103444000,Units=km
new line.TR12785777 bus1=BMT9387300B.2,bus2=BMT9387301B.2,Phases=1,Linecode=CAB202_3_1,Length=0.070906000,Units=km
new line.TR12785779 bus1=BMT9387301B.2,bus2=BMT9387302B.2,Phases=1,Linecode=CAB202_3_1,Length=0.064962000,Units=km
new line.TR12785786 bus1=BMT9387302B.2,bus2=BMT172574477.2,Phases=1,Linecode=CAB202_3_1,Length=0.098117000,Units=km
new line.TR12787331 bus1=BMT1530206B.1,bus2=BMT9388982B.1,Phases=1,Linecode=CABA06_3_1,Length=0.026429000,Units=km
new line.TR12787332 bus1=BMT9388982B.1,bus2=BMT9388979B.1,Phases=1,Linecode=CABA06_3_1,Length=0.028663000,Units=km
new line.TR12787353 bus1=BMT9388979B.1,bus2=BMT172636421.1,Phases=1,Linecode=CABA06_3_1,Length=0.018981000,Units=km
new line.TR1584169 bus1=BMT135223869.2,bus2=BMT135223876.2,Phases=1,Linecode=CAB202_3_1,Length=0.227851000,Units=km
new line.TR1584197 bus1=BMT160084992.2,bus2=BMT160084993.2,Phases=1,Linecode=CAB202_3_1,Length=0.099679000,Units=km
new line.TR1783109 bus1=BMT2362261B.1.2.3,bus2=BMT121197059.1.2.3,Phases=3,Linecode=CAB102_3_3,Length=0.017471000,Units=km
new line.TR1908941 bus1=BMT2514294B.1.2.3,bus2=BMT2514301B.1.2.3,Phases=3,Linecode=CABA06_3_3,Length=0.045634000,Units=km
new line.TR1908948 bus1=BMT2514301B.1.2.3,bus2=BMT2514308B.1.2.3,Phases=3,Linecode=CABA06_3_3,Length=0.032214000,Units=km
new line.TR1909746 bus1=BMT2515274B.1.2.3,bus2=BMT160356577.1.2.3,Phases=3,Linecode=CAB102_3_3,Length=0.029557000,Units=km
new line.TR1909788 bus1=BMT2515435B.1.2.3,bus2=BMT160356573.1.2.3,Phases=3,Linecode=CABA06_3_3,Length=0.031792000,Units=km
new line.TR2129063 bus1=BMT169999717.1,bus2=BMT2839906B.1,Phases=1,Linecode=CABA06_3_1,Length=0.031587000,Units=km
new line.TR2132906 bus1=BMT121196989.1.2.3,bus2=BMT2614877.1.2.3,Phases=3,Linecode=CAB104_3_3,Length=0.014872000,Units=km
new line.TR2132913 bus1=BMT121196989.1.2.3,bus2=BMT121196996.1.2.3,Phases=3,Linecode=CAB104_3_3,Length=0.027524000,Units=km
new line.TR2132920 bus1=BMT121196989.1.2.3,bus2=BMT2782975B.1.2.3,Phases=3,Linecode=CAB104_3_3,Length=0.023778000,Units=km
new line.TR2135034 bus1=BMT2785152B.1.2.3,bus2=BMT121196982.1.2.3,Phases=3,Linecode=CAB104_3_3,Length=0.015006000,Units=km
new line.TR2180226 bus1=BMT2839850B.2,bus2=BMT2839864B.2,Phases=1,Linecode=CABA06_3_1,Length=0.039065000,Units=km
new line.TR2180233 bus1=BMT2839864B.2,bus2=BMT3747512B.2,Phases=1,Linecode=CABA06_3_1,Length=0.032768000,Units=km
new line.TR2180240 bus1=BMT2839899B.1,bus2=BMT169999718.1,Phases=1,Linecode=CABA06_3_1,Length=0.041788000,Units=km
new line.TR2180247 bus1=BMT2839906B.1,bus2=BMT2839899B.1,Phases=1,Linecode=CABA06_3_1,Length=0.028872000,Units=km
new line.TR2459008 bus1=BMT135223883.2,bus2=BMT135223897.2,Phases=1,Linecode=CAB202_3_1,Length=0.109592000,Units=km
new line.TR2459015 bus1=BMT135223883.2,bus2=BMT135223904.2,Phases=1,Linecode=CAB103_3_1,Length=0.049535000,Units=km
new line.TR2491369 bus1=BMT3259899B.2,bus2=BMT3259906B.2,Phases=1,Linecode=CAB202_3_1,Length=0.171652000,Units=km
new line.TR2491376 bus1=BMT3259906B.2,bus2=BMT3259913B.2,Phases=1,Linecode=CAB202_3_1,Length=0.101569000,Units=km
new line.TR2491383 bus1=BMT3259913B.2,bus2=BMT3259920B.2,Phases=1,Linecode=CAB202_3_1,Length=0.251062000,Units=km
new line.TR2491390 bus1=BMT3259920B.2,bus2=BMT3259927B.2,Phases=1,Linecode=CAB202_3_1,Length=0.165614000,Units=km
new line.TR2491397 bus1=BMT3259927B.2,bus2=BMT131818180.2,Phases=1,Linecode=CAB202_3_1,Length=0.101080000,Units=km
new line.TR2522974 bus1=BMT121197759.2,bus2=BMT160084994.2,Phases=1,Linecode=CAB202_3_1,Length=0.105398000,Units=km
new line.TR2522981 bus1=BMT160253976.2,bus2=BMT3304349B.2,Phases=1,Linecode=CAB202_3_1,Length=0.164571000,Units=km
new line.TR2522995 bus1=BMT3304356B.2,bus2=BMT3304363B.2,Phases=1,Linecode=CAB202_3_1,Length=0.113785000,Units=km
new line.TR2523002 bus1=BMT3304363B.2,bus2=BMT160253977.2,Phases=1,Linecode=CAB202_3_1,Length=0.177290000,Units=km
new line.TR2523009 bus1=BMT160253977.2,bus2=BMT160253978.2,Phases=1,Linecode=CAB202_3_1,Length=0.175406000,Units=km
new line.TR2523016 bus1=BMT160253978.2,bus2=BMT3304384B.2,Phases=1,Linecode=CAB202_3_1,Length=0.126080000,Units=km
new line.TR2523023 bus1=BMT3304384B.2,bus2=BMT3304391B.2,Phases=1,Linecode=CAB202_3_1,Length=0.121245000,Units=km
new line.TR2523030 bus1=BMT3304391B.2,bus2=BMT3304398B.2,Phases=1,Linecode=CAB202_3_1,Length=0.135760000,Units=km
new line.TR2523037 bus1=BMT3304398B.2,bus2=BMT3304405B.2,Phases=1,Linecode=CAB202_3_1,Length=0.111439000,Units=km
new line.TR2523044 bus1=BMT3304405B.2,bus2=BMT160253980.2,Phases=1,Linecode=CAB202_3_1,Length=0.060428000,Units=km
new line.TR2555279 bus1=BMT163588413.1.2.3,bus2=BMT1533097B.1.2.3,Phases=3,Linecode=CAB102_3_3,Length=0.014872000,Units=km
new line.TR2555454 bus1=BMT3347315B.2,bus2=BMT3747813B.2,Phases=1,Linecode=CABA06_3_1,Length=0.035790000,Units=km
new line.TR2860045 bus1=BMT3747512B.2,bus2=BMT3747617B.2,Phases=1,Linecode=CABA06_3_1,Length=0.031634000,Units=km
new line.TR2860101 bus1=BMT3747617B.2,bus2=BMT3747645B.2,Phases=1,Linecode=CABA06_3_1,Length=0.031918000,Units=km
new line.TR2860108 bus1=BMT3747645B.2,bus2=BMT167293344.2,Phases=1,Linecode=CABA06_3_1,Length=0.031634000,Units=km
new line.TR2860164 bus1=BMT3747813B.2,bus2=BMT3747820B.2,Phases=1,Linecode=CABA06_3_1,Length=0.027741000,Units=km
new line.TR2860171 bus1=BMT3747820B.2,bus2=BMT156038554.2,Phases=1,Linecode=CABA06_3_1,Length=0.039826000,Units=km
new line.TR2979500 bus1=BMT3891684B.1.2.3,bus2=BMT121196492.1.2.3,Phases=3,Linecode=CABA06_3_3,Length=0.044569000,Units=km
new line.TR3412863 bus1=BMT4417132B.2,bus2=BMT121197773.2,Phases=1,Linecode=CAB202_3_1,Length=0.129664000,Units=km
new line.TR3412870 bus1=BMT131818173.2,bus2=BMT3259899B.2,Phases=1,Linecode=CAB202_3_1,Length=0.135638000,Units=km
...
