2024_89_CemigReconfigurationCases/1_AlimsCemig/COJ08/COJ08ChavesMT.dss
new line.CTR14272 bus1=BMT121198011.2,bus2=BMT160102476.2,Phases=1,LineCode=tieSwitch1,Length=0.001,Units=km,switch=T !numEQ 156938
new line.CTR352358 bus1=BMT161635497.1.2.3,bus2=BMT121196324.1.2.3,Phases=3,LineCode=tieSwitch,Length=0.001,Units=km,switch=T !numEQ 286963
open line.CTR352358 term=1
new line.CTR863851 bus1=BMT153853222.1,bus2=BMT169999727.1,Phases=1,LineCode=tieSwitch1,Length=0.001,Units=km,switch=T !numEQ 239870
new line.CTR12019268 bus1=BMT2012019269.1.2.3,bus2=BMT2196330269.1.2.3,Phases=3,LineCode=tieSwitch,Length=0.001,Units=km,switch=T !numEQ 
new line.CTR12019378 bus1=BMT2196330269.1.2.3,bus2=BMT2012019379.1.2.3,Phases=3,LineCode=tieSwitch,Length=0.001,Units=km,switch=T !numEQ 
new line.CTR231580 bus1=BMT160356576.1.2.3,bus2=BMT2307395.1.2.3,Phases=3,LineCode=tieSwitch,Length=0.001,Units=km,switch=T !numEQ 25049
open line.CTR231580 term=1
new line.CTR231587 bus1=BMT121197213.1,bus2=BMT171450930.1,Phases=1,LineCode=tieSwitch1,Length=0.001,Units=km,switch=T !numEQ 25050
new line.CTR231594 bus1=BMT121197087.1.2.3,bus2=BMT160356567.1.2.3,Phases=3,LineCode=tieSwitch,Length=0.001,Units=km,switch=T !numEQ 25051
new line.CTR231601 bus1=BMT121197318.1.2.3,bus2=BMT146342291.1.2.3,Phases=3,LineCode=tieSwitch,Length=0.001,Units=km,switch=T !numEQ 25052
new line.CTR231608 bus1=BMT121197059.1.2.3,bus2=BMT121197598.1.2.3,Phases=3,LineCode=tieSwitch,Length=0.001,Units=km,switch=T !numEQ 25053
new line.CTR231615 bus1=BMT121197031.1.2.3,bus2=BMT121197038.1.2.3,Phases=3,LineCode=tieSwitch,Length=0.001,Units=km,switch=T !numEQ 25054
new line.CTR231622 bus1=BMT121197024.1.2.3,bus2=BMT121198263.1.2.3,Phases=3,LineCode=tieSwitch,Length=0.001,Units=km,switch=T !numEQ 25055
new line.CTR231629 bus1=BMT121197017.1.2.3,bus2=BMT161108148.1.2.3,Phases=3,LineCode=tieSwitch,Length=0.001,Units=km,switch=T !numEQ 25056
new line.CTR231643 bus1=BMT163478064.1.2.3,bus2=BMT2129210.1.2.3,Phases=3,LineCode=tieSwitch,Length=0.001,Units=km,switch=T !numEQ 25059
open line.CTR231643 term=1
new line.CTR231650 bus1=BMT121196275.1.2.3,bus2=BMT161635493.1.2.3,Phases=3,LineCode=tieSwitch,Length=0.001,Units=km,switch=T !numEQ 25061
new line.CTR231657 bus1=BMT121196996.1.2.3,bus2=BMT162984420.1.2.3,Phases=3,LineCode=tieSwitch,Length=0.001,Units=km,switch=T !numEQ 25063
new line.CTR231664 bus1=BMT121197080.1.2.3,bus2=BMT121197297.1.2.3,Phases=3,LineCode=tieSwitch,Length=0.001,Units=km,switch=T !numEQ 25066
new line.CTR231671 bus1=BMT121196947.1.2.3,bus2=BMT121198445.1.2.3,Phases=3,LineCode=tieSwitch,Length=0.001,Units=km,switch=T !numEQ 25070
new line.CTR231678 bus1=BMT121196527.1.2.3,bus2=BMT154591365.1.2.3,Phases=3,LineCode=tieSwitch,Length=0.001,Units=km,switch=T !numEQ 25072
new line.CTR231685 bus1=BMT121198368.1.2.3,bus2=BMT170371743.1.2.3,Phases=3,LineCode=tieSwitch,Length=0.001,Units=km,switch=T !numEQ 25079
new line.CTR231706 bus1=BMT121196310.1.2.3,bus2=BMT121198473.1.2.3,Phases=3,LineCode=tieSwitch,Length=0.001,Units=km,switch=T !numEQ 25082
new line.CTR231713 bus1=BMT121196961.1.2.3,bus2=BMT121196954.1.2.3,Phases=3,LineCode=tieSwitch,Length=0.001,Units=km,switch=T !numEQ 25083
new line.CTR231720 bus1=BMT121196940.1.2.3,bus2=BMT121196821.1.2.3,Phases=3,LineCode=tieSwitch,Length=0.001,Units=km,switch=T !numEQ 25084
new line.CTR231727 bus1=BMT121196828.1.2.3,bus2=BMT121196926.1.2.3,Phases=3,LineCode=tieSwitch,Length=0.001,Units=km,switch=T !numEQ 25085
new line.CTR263479 bus1=BMT121197780.2,bus2=BMT169601352.2,Phases=1,LineCode=tieSwitch1,Length=0.001,Units=km,switch=T !numEQ 175704
new line.CTR263486 bus1=BMT121197794.2,bus2=BMT160252778.2,Phases=1,LineCode=tieSwitch1,Length=0.001,Units=km,switch=T !numEQ 175705
new line.CTR263493 bus1=BMT121197801.2,bus2=BMT121198046.2,Phases=1,LineCode=tieSwitch1,Length=0.001,Units=km,switch=T !numEQ 175706
new line.CTR263500 bus1=BMT121197808.2,bus2=BMT121197927.2,Phases=1,LineCode=tieSwitch1,Length=0.001,Units=km,switch=T !numEQ 175707
new line.CTR263507 bus1=BMT121197850.2,bus2=BMT121197864.2,Phases=1,LineCode=tieSwitch1,Length=0.001,Units=km,switch=T !numEQ 175708
new line.CTR263591 bus1=BMT121197871.2,bus2=BMT169675770.2,Phases=1,LineCode=tieSwitch1,Length=0.001,Units=km,switch=T !numEQ 175709
new line.CTR419530 bus1=BMT134955874.2,bus2=BMT134955902.2,Phases=1,LineCode=tieSwitch1,Length=0.001,Units=km,switch=T !numEQ 307373
new line.CTR421203 bus1=BMT135223869.2,bus2=BMT135223911.2,Phases=1,LineCode=tieSwitch1,Length=0.001,Units=km,switch=T !numEQ 220579
new line.CTR182559 bus1=BMT121198305.1.2.3,bus2=BMT121198326.1.2.3,Phases=3,LineCode=tieSwitch,Length=0.001,Units=km,switch=T !numEQ 191361
new line.CTR19725 bus1=BMT121197724.2,bus2=BMT167293343.2,Phases=1,LineCode=tieSwitch1,Length=0.001,Units=km,switch=T !numEQ 182198
new line.CTR241800 bus1=BMT121197465.2,bus2=BMT148644782.2,Phases=1,LineCode=tieSwitch1,Length=0.001,Units=km,switch=T !numEQ 15331
new line.CTR241807 bus1=BMT170877114.1.2.3,bus2=BMT121196548.1.2.3,Phases=3,LineCode=tieSwitch,Length=0.001,Units=km,switch=T !numEQ 242613
new line.CTR241814 bus1=BMT121197339.1.2.3,bus2=BMT164455990.1.2.3,Phases=3,LineCode=tieSwitch,Length=0.001,Units=km,switch=T !numEQ 15334
new line.CTR267273 bus1=BMT121196583.1.2.3,bus2=BMT121196667.1.2.3,Phases=3,LineCode=tieSwitch,Length=0.001,Units=km,switch=T !numEQ 25534
new line.CTR267287 bus1=BMT121196597.1.2.3,bus2=BMT121196653.1.2.3,Phases=3,LineCode=tieSwitch,Length=0.001,Units=km,switch=T !numEQ 25535
new line.CTR267406 bus1=BMT137359135.1.2.3,bus2=BMT2736796.1.2.3,Phases=3,LineCode=tieSwitch,Length=0.001,Units=km,switch=T !numEQ 25629
open line.CTR267406 term=1
new line.CTR29406 bus1=BMT121196380.1.2.3,bus2=BMT171498560.1.2.3,Phases=3,LineCode=tieSwitch,Length=0.001,Units=km,switch=T !numEQ 177250
new line.CTR29413 bus1=BMT121197045.1.2.3,bus2=BMT121198235.1.2.3,Phases=3,LineCode=tieSwitch,Length=0.001,Units=km,switch=T !numEQ 177251
new line.CTR29420 bus1=BMT121197360.1.2.3,bus2=BMT172435348.1.2.3,Phases=3,LineCode=tieSwitch,Length=0.001,Units=km,switch=T !numEQ 177252
new line.CTR29427 bus1=BMT121197472.1,bus2=BMT121197493.1,Phases=1,LineCode=tieSwitch1,Length=0.001,Units=km,switch=T !numEQ 177253
new line.CTR328656 bus1=BMT162888960.1,bus2=BMT170891789.1,Phases=1,LineCode=tieSwitch1,Length=0.001,Units=km,switch=T !numEQ 228315
new line.CTR184827 bus1=BMT121196562.1.2.3,bus2=BMT170000093.1.2.3,Phases=3,LineCode=tieSwitch,Length=0.001,Units=km,switch=T !numEQ 25532
new line.CTR19732 bus1=BMT121197696.2,bus2=BMT156038553.2,Phases=1,LineCode=tieSwitch1,Length=0.001,Units=km,switch=T !numEQ 182199
new line.CTR913045 bus1=BMT171145942.1,bus2=BMT172636420.1,Phases=1,LineCode=tieSwitch1,Length=0.001,Units=km,switch=T !numEQ 267049
new line.CTR192107 bus1=BMT164632281.2,bus2=BMT164632285.2,Phases=1,LineCode=tieSwitch1,Length=0.001,Units=km,switch=T !numEQ 23732
new line.CTR228731 bus1=BMT121196842.2,bus2=BMT135223862.2,Phases=1,LineCode=tieSwitch1,Length=0.001,Units=km,switch=T !numEQ 25762
new line.CTR228962 bus1=BMT121196331.1.2.3,bus2=BMT121196345.1.2.3,Phases=3,LineCode=tieSwitch,Length=0.001,Units=km,switch=T !numEQ 25817
new line.CTR230012 bus1=BMT121196737.1,bus2=BMT169999729.1,Phases=1,LineCode=tieSwitch1,Length=0.001,Units=km,switch=T !numEQ 25776
new line.CTR230019 bus1=BMT121197381.1.2.3,bus2=BMT163588411.1.2.3,Phases=3,LineCode=tieSwitch,Length=0.001,Units=km,switch=T !numEQ 25777
new line.CTR230026 bus1=BMT121197423.1.2.3,bus2=BMT154526796.1.2.3,Phases=3,LineCode=tieSwitch,Length=0.001,Units=km,switch=T !numEQ 25778
new line.CTR230446 bus1=BMT170877110.1.2.3,bus2=BMT121196513.1.2.3,Phases=3,LineCode=tieSwitch,Length=0.001,Units=km,switch=T !numEQ 25530
new line.CTR230453 bus1=BMT121196366.1.2.3,bus2=BMT121196373.1.2.3,Phases=3,LineCode=tieSwitch,Length=0.001,Units=km,switch=T !numEQ 25531
new line.CTR230460 bus1=BMT121196555.1.2.3,bus2=BMT121196576.1.2.3,Phases=3,LineCode=tieSwitch,Length=0.001,Units=km,switch=T !numEQ 25533
new line.CTR230467 bus1=BMT121196401.1.2.3,bus2=BMT121196471.1.2.3,Phases=3,LineCode=tieSwitch,Length=0.001,Units=km,switch=T !numEQ 275408
new line.CTR230474 bus1=BMT121196408.1.2.3,bus2=BMT137359086.1.2.3,Phases=3,LineCode=tieSwitch,Length=0.001,Units=km,switch=T !numEQ 25537
new line.CTR230516 bus1=BMT121196695.1.2.3,bus2=BMT121196800.1.2.3,Phases=3,LineCode=tieSwitch,Length=0.001,Units=km,switch=T !numEQ 25544
new line.CTR230523 bus1=BMT121196611.1.2.3,bus2=BMT121196625.1.2.3,Phases=3,LineCode=tieSwitch,Length=0.001,Units=km,switch=T !numEQ 25545
new line.CTR230530 bus1=BMT121198375.1.2.3,bus2=BMT163803788.1.2.3,Phases=3,LineCode=tieSwitch,Length=0.001,Units=km,switch=T !numEQ 25546
new line.CTR230537 bus1=BMT121198312.1.2.3,bus2=BMT121198319.1.2.3,Phases=3,LineCode=tieSwitch,Length=0.001,Units=km,switch=T !numEQ 25547
open line.CTR230537 term=1
new line.CTR230544 bus1=BMT164632330.1.2.3,bus2=BMT121197661.1.2.3,Phases=3,LineCode=tieSwitch,Length=0.001,Units=km,switch=T !numEQ 25548
open line.CTR230544 term=1
new line.CTR230551 bus1=BMT121197073.1.2.3,bus2=BMT171145941.1.2.3,Phases=3,LineCode=tieSwitch,Length=0.001,Units=km,switch=T !numEQ 25549
new line.CTR230558 bus1=BMT121197626.1.2.3,bus2=BMT164632327.1.2.3,Phases=3,LineCode=tieSwitch,Length=0.001,Units=km,switch=T !numEQ 25550
new line.CTR406699 bus1=BMT131818180.2,bus2=BMT160408316.2,Phases=1,LineCode=tieSwitch1,Length=0.001,Units=km,switch=T !numEQ 295393
new line.CTR875485 bus1=BMT157333895.1,bus2=BMT169999716.1,Phases=1,LineCode=tieSwitch1,Length=0.001,Units=km,switch=T !numEQ 247069
new line.CTR237642 bus1=BMT121197136.1.2.3,bus2=BMT121197164.1.2.3,Phases=3,LineCode=tieSwitch,Length=0.001,Units=km,switch=T !numEQ 23731
new line.CTR33550 bus1=BMT121197759.2,bus2=BMT160253976.2,Phases=1,LineCode=tieSwitch1,Length=0.001,Units=km,switch=T !numEQ 175703
new line.CTR852309 bus1=BMT150547586.1.2.3,bus2=BMT155137064.1.2.3,Phases=3,LineCode=tieSwitch,Length=0.001,Units=km,switch=T !numEQ 315559
new line.CTR883186 bus1=BMT160102478.2,bus2=BMT172574474.2,Phases=1,LineCode=tieSwitch1,Length=0.001,Units=km,switch=T !numEQ 247365
new line.CTR883545 bus1=BMT160263327.1.2.3,bus2=BMT163478060.1.2.3,Phases=3,LineCode=tieSwitch,Length=0.001,Units=km,switch=T !numEQ 133016
new line.CTR903423 bus1=BMT167749491.1.2.3,bus2=BMT171231771.1.2.3,Phases=3,LineCode=tieSwitch,Length=0.001,Units=km,switch=T !numEQ 269484
new line.CTR903426 bus1=BMT167749589.1.2.3,bus2=BMT167749585.1.2.3,Phases=3,LineCode=tieSwitch,Length=0.001,Units=km,switch=T !numEQ 269486
open line.CTR903426 term=1
new line.CTRR14909 bus1=BMT121197304.1.2.3,bus2=BMT121197311.1.2.3,Phases=3,LineCode=tieSwitch,Length=0.001,Units=km,switch=T !numEQ 291002
new line.CTRR19445 bus1=BMT136183863.2,bus2=BMT172704242.2,Phases=1,LineCode=tieSwitch1,Length=0.001,Units=km,switch=T !numEQ 306592
new line.CTR130612 bus1=BMT121197731.2,bus2=BMT160084991.2,Phases=1,LineCode=tieSwitch1,Length=0.001,Units=km,switch=T !numEQ 81982
new line.CTR33711 bus1=BMT121197773.2,bus2=BMT131818173.2,Phases=1,LineCode=tieSwitch1,Length=0.001,Units=km,switch=T !numEQ 175733
