2024_89_CemigReconfigurationCases/1_AlimsCemig/COJ08/COJ08SegmentosBT.dss
new line.1558402 bus1=BBT1688217.1.2.0,bus2=BBT1688224.1.2.0,Phases=2,Linecode=BT305_BT305_7_2_1,Length=0.000501000,Units=km
new line.1763572 bus1=BBT1895032.1.2.0,bus2=BBT1895025.1.2.0,Phases=2,Linecode=BT108_BT107_7_2_1,Length=0.033253000,Units=km
new line.1763579 bus1=BBT1895039.1.2.0,bus2=BBT1895032.1.2.0,Phases=2,Linecode=BT108_BT107_7_2_1,Length=0.034188000,Units=km
new line.1763586 bus1=BBT1895018.1.2.0,bus2=BBT2711512.1.2.0,Phases=2,Linecode=BT521_BT521_7_2_1,Length=0.000501000,Units=km
new line.1763593 bus1=BBT1895060.1.2.0,bus2=BBT1895039.1.2.0,Phases=2,Linecode=BT108_BT107_7_2_1,Length=0.037175000,Units=km
new line.1763600 bus1=BBT1895046.1.2.0,bus2=BBT1895053.1.2.0,Phases=2,Linecode=BT108_BT107_7_2_1,Length=0.030094000,Units=km
new line.1763607 bus1=BBT1895060.1.2.0,bus2=BBT1895046.1.2.0,Phases=2,Linecode=BT108_BT107_7_2_1,Length=0.031396000,Units=km
new line.1763614 bus1=BBT1895060.1.2.0,bus2=BBT1895067.1.2.0,Phases=2,Linecode=BT107_BT107_7_2_1,Length=0.036414000,Units=km
new line.1763621 bus1=BBT2711512.1.2.0,bus2=BBT1895060.1.2.0,Phases=2,Linecode=BT807_BT807_4_2_3,Length=0.034798000,Units=km
new line.1763628 bus1=BBT1895067.1.2.0,bus2=BBT1895074.1.2.0,Phases=2,Linecode=BT107_BT107_7_2_1,Length=0.028471000,Units=km
new line.1874690 bus1=BBT2025316.1.2.3.0,bus2=BBT2025407.1.2.3.0,Phases=3,Linecode=BT810_BT810_4_3_4,Length=0.042969000,Units=km
new line.1874697 bus1=BBT2025337.1.2.3.0,bus2=BBT2025400.1.2.3.0,Phases=3,Linecode=BT108_BT107_7_3_1,Length=0.036027000,Units=km
new line.1874704 bus1=BBT2025344.1.2.0,bus2=BBT2025414.1.2.0,Phases=2,Linecode=BT107_BT107_7_2_1,Length=0.033027000,Units=km
new line.1874711 bus1=BBT2025351.1.2.0,bus2=BBT2025344.1.2.0,Phases=2,Linecode=BT107_BT107_7_2_1,Length=0.037027000,Units=km
new line.1874718 bus1=BBT2025351.1.2.0,bus2=BBT2025421.1.2.0,Phases=2,Linecode=BT107_BT107_7_2_1,Length=0.037350000,Units=km
new line.1874732 bus1=BBT2025365.1.2.3.0,bus2=BBT2025337.1.2.3.0,Phases=3,Linecode=BT108_BT107_7_3_1,Length=0.039333000,Units=km
new line.1874739 bus1=BBT2025386.1.2.3.0,bus2=BBT2025365.1.2.3.0,Phases=3,Linecode=BT108_BT107_7_3_1,Length=0.036262000,Units=km
new line.1874746 bus1=BBT2025302.1.2.3.0,bus2=BBT2025386.1.2.3.0,Phases=3,Linecode=BT508_BT508_7_3_1,Length=0.000501000,Units=km
new line.1874753 bus1=BBT2025386.1.2.3.0,bus2=BBT2025393.1.2.3.0,Phases=3,Linecode=BT108_BT107_7_3_1,Length=0.042394000,Units=km
new line.1874760 bus1=BBT2025393.1.2.3.0,bus2=BBT2025372.1.2.3.0,Phases=3,Linecode=BT108_BT107_7_3_1,Length=0.037175000,Units=km
new line.1874767 bus1=BBT2025393.1.2.3.0,bus2=BBT2025316.1.2.3.0,Phases=3,Linecode=BT810_BT810_4_3_4,Length=0.031776000,Units=km
new line.1874774 bus1=BBT2025393.1.2.0,bus2=BBT2025351.1.2.0,Phases=2,Linecode=BT107_BT107_7_2_1,Length=0.033118000,Units=km
new line.1874788 bus1=BBT2025400.1.2.3.0,bus2=BBT2025379.1.2.3.0,Phases=3,Linecode=BT803_BT803_4_3_4,Length=0.027741000,Units=km
new line.1874795 bus1=BBT2025400.1.0,bus2=BBT2025358.1.0,Phases=1,Linecode=BT106_BT206_7_1_1,Length=0.064217000,Units=km
new line.1874802 bus1=BBT2025407.1.2.3.0,bus2=BBT2025323.1.2.3.0,Phases=3,Linecode=BT810_BT810_4_3_4,Length=0.033850000,Units=km
new line.1874809 bus1=BBT2025407.1.2.3.0,bus2=BBT2025330.1.2.3.0,Phases=3,Linecode=BT810_BT810_4_3_4,Length=0.032707000,Units=km
new line.1874816 bus1=BBT2025407.1.2.3.0,bus2=BBT2408475.1.2.3.0,Phases=3,Linecode=BT810_BT810_4_3_4,Length=0.033627000,Units=km
new line.1874823 bus1=BBT2025414.1.2.0,bus2=BBT3572701.1.2.0,Phases=2,Linecode=BT808_BT808_4_2_3,Length=0.040064000,Units=km
new line.1874830 bus1=BBT171519238.1.2.0,bus2=BBT2025309.1.2.0,Phases=2,Linecode=BT107_BT107_7_2_1,Length=0.028855000,Units=km
new line.1874844 bus1=BBT2025449.1.2.3.0,bus2=BBT2025498.1.2.3.0,Phases=3,Linecode=BT107_BT106_7_3_1,Length=0.029028000,Units=km
new line.1874851 bus1=BBT2025442.1.2.3.0,bus2=BBT2025456.1.2.3.0,Phases=3,Linecode=BT513_BT513_7_3_1,Length=0.000501000,Units=km
new line.1874858 bus1=BBT2025456.1.2.3.0,bus2=BBT2025463.1.2.3.0,Phases=3,Linecode=BT108_BT107_7_3_1,Length=0.038924000,Units=km
new line.1874865 bus1=BBT2025456.1.2.3.0,bus2=BBT2025526.1.2.3.0,Phases=3,Linecode=BT108_BT107_7_3_1,Length=0.039014000,Units=km
new line.1874872 bus1=BBT2025463.1.2.3.0,bus2=BBT2025477.1.2.3.0,Phases=3,Linecode=BT108_BT107_7_3_1,Length=0.039826000,Units=km
new line.1874879 bus1=BBT2025463.1.2.3.0,bus2=BBT2025470.1.2.3.0,Phases=3,Linecode=BT106_BT106_7_3_1,Length=0.039231000,Units=km
new line.1874886 bus1=BBT2025463.1.2.3.0,bus2=BBT2025540.1.2.3.0,Phases=3,Linecode=BT107_BT107_7_3_1,Length=0.038092000,Units=km
new line.1874893 bus1=BBT2025470.1.2.3.0,bus2=BBT2025484.1.2.3.0,Phases=3,Linecode=BT106_BT106_7_3_1,Length=0.040868000,Units=km
new line.1874900 bus1=BBT2025484.1.2.3.0,bus2=BBT2025491.1.2.3.0,Phases=3,Linecode=BT106_BT106_7_3_1,Length=0.038640000,Units=km
new line.1874907 bus1=BBT2025491.1.2.3.0,bus2=BBT2025547.1.2.3.0,Phases=3,Linecode=BT106_BT106_7_3_1,Length=0.037175000,Units=km
new line.1874914 bus1=BBT2025498.1.2.3.0,bus2=BBT2025561.1.2.3.0,Phases=3,Linecode=BT107_BT106_7_3_1,Length=0.035027000,Units=km
new line.1874921 bus1=BBT2025505.1.2.3.0,bus2=BBT2025533.1.2.3.0,Phases=3,Linecode=BT107_BT107_7_3_1,Length=0.034941000,Units=km
new line.1874928 bus1=BBT2025512.1.2.3.0,bus2=BBT2025505.1.2.3.0,Phases=3,Linecode=BT107_BT107_7_3_1,Length=0.038092000,Units=km
new line.1874935 bus1=BBT2025519.1.2.3.0,bus2=BBT2025568.1.2.3.0,Phases=3,Linecode=BT107_BT106_7_3_1,Length=0.024030000,Units=km
new line.1874942 bus1=BBT2025526.1.2.3.0,bus2=BBT2025449.1.2.3.0,Phases=3,Linecode=BT107_BT106_7_3_1,Length=0.038027000,Units=km
new line.1874949 bus1=BBT2025526.1.2.3.0,bus2=BBT2025519.1.2.3.0,Phases=3,Linecode=BT107_BT106_7_3_1,Length=0.027010000,Units=km
new line.1874956 bus1=BBT2025533.1.2.0,bus2=BBT3572694.1.2.0,Phases=2,Linecode=BT808_BT808_4_2_3,Length=0.027028000,Units=km
new line.1874963 bus1=BBT2025540.1.2.3.0,bus2=BBT2025554.1.2.3.0,Phases=3,Linecode=BT107_BT107_7_3_1,Length=0.031027000,Units=km
new line.1874970 bus1=BBT2025554.1.2.3.0,bus2=BBT2025512.1.2.3.0,Phases=3,Linecode=BT107_BT107_7_3_1,Length=0.034027000,Units=km
new line.1874977 bus1=BBT2025568.1.2.3.0,bus2=BBT2309607.1.2.3.0,Phases=3,Linecode=BT107_BT106_7_3_1,Length=0.024092000,Units=km
new line.1875005 bus1=BBT2025596.1.2.3.0,bus2=BBT2025603.1.2.3.0,Phases=3,Linecode=BT108_BT107_7_3_1,Length=0.027084000,Units=km
new line.1875012 bus1=BBT2025596.1.2.0,bus2=BBT2025687.1.2.0,Phases=2,Linecode=BT106_BT106_7_2_1,Length=0.024009000,Units=km
new line.1875019 bus1=BBT2025603.1.2.3.0,bus2=BBT2025610.1.2.3.0,Phases=3,Linecode=BT108_BT107_7_3_1,Length=0.044737000,Units=km
new line.1875026 bus1=BBT2025603.1.2.3.0,bus2=BBT2025666.1.2.3.0,Phases=3,Linecode=BT106_BT106_7_3_1,Length=0.039839000,Units=km
new line.1875033 bus1=BBT2025610.1.2.3.0,bus2=BBT2025617.1.2.3.0,Phases=3,Linecode=BT108_BT107_7_3_1,Length=0.043753000,Units=km
new line.1875061 bus1=BBT2026023.1.2.3.0,bus2=BBT2026030.1.2.3.0,Phases=3,Linecode=BT106_BT106_7_3_1,Length=0.029540000,Units=km
new line.1875068 bus1=BBT2025645.1.2.3.0,bus2=BBT2025638.1.2.3.0,Phases=3,Linecode=BT106_BT106_7_3_1,Length=0.026842000,Units=km
new line.1875075 bus1=BBT2025652.1.2.0,bus2=BBT2025659.1.2.0,Phases=2,Linecode=BT106_BT106_7_2_1,Length=0.037603000,Units=km
new line.1875082 bus1=BBT2025666.1.2.3.0,bus2=BBT2025729.1.2.3.0,Phases=3,Linecode=BT106_BT106_7_3_1,Length=0.049211000,Units=km
new line.1560201 bus1=BBT1690009.1.2.0,bus2=BBT1690016.1.2.0,Phases=2,Linecode=BT307_BT307_7_2_1,Length=0.000501000,Units=km
new line.1562392 bus1=BBT1692228.1.2.0,bus2=BBT1692235.1.2.0,Phases=2,Linecode=BT304_BT304_7_2_1,Length=0.000501000,Units=km
new line.1562399 bus1=BBT1692256.1.2.0,bus2=BBT1692263.1.2.0,Phases=2,Linecode=BT304_BT304_7_2_1,Length=0.000501000,Units=km
new line.1562469 bus1=BBT1692333.1.2.0,bus2=BBT1692340.1.2.0,Phases=2,Linecode=BT308_BT308_7_2_1,Length=0.000501000,Units=km
new line.18696982 bus1=BBT148489192.1.2.0,bus2=BBT2023384.1.2.0,Phases=2,Linecode=BT108_BT108_7_2_1,Length=0.021548000,Units=km
new line.1875789 bus1=BBT2026366.1.2.3.0,bus2=BBT2026289.1.2.3.0,Phases=3,Linecode=BT107_BT107_7_3_1,Length=0.028471000,Units=km
new line.1875803 bus1=BBT2026387.1.2.3.0,bus2=BBT2026394.1.2.3.0,Phases=3,Linecode=BT521_BT521_7_3_1,Length=0.000501000,Units=km
new line.1875810 bus1=BBT2026394.1.2.3.0,bus2=BBT2026401.1.2.3.0,Phases=3,Linecode=BT108_BT107_7_3_1,Length=0.026486000,Units=km
new line.1875817 bus1=BBT2026394.1.2.3.0,bus2=BBT2026408.1.2.3.0,Phases=3,Linecode=BT108_BT107_7_3_1,Length=0.022480000,Units=km
new line.1875824 bus1=BBT2026401.1.2.3.0,bus2=BBT2026429.1.2.3.0,Phases=3,Linecode=BT108_BT107_7_3_1,Length=0.033148000,Units=km
new line.1875831 bus1=BBT2026408.1.2.3.0,bus2=BBT2026415.1.2.3.0,Phases=3,Linecode=BT108_BT107_7_3_1,Length=0.025089000,Units=km
new line.1875845 bus1=BBT2026415.1.2.3.0,bus2=BBT2026422.1.2.3.0,Phases=3,Linecode=BT108_BT107_7_3_1,Length=0.031396000,Units=km
new line.1875852 bus1=BBT2026429.1.2.3.0,bus2=BBT2026436.1.2.3.0,Phases=3,Linecode=BT106_BT106_7_3_1,Length=0.036248000,Units=km
new line.1875859 bus1=BBT2026429.1.2.3.0,bus2=BBT2026464.1.2.3.0,Phases=3,Linecode=BT810_BT810_4_3_4,Length=0.013043000,Units=km
new line.1875866 bus1=BBT2026436.1.2.3.0,bus2=BBT2026443.1.2.3.0,Phases=3,Linecode=BT106_BT106_7_3_1,Length=0.034725000,Units=km
new line.1875873 bus1=BBT2026443.1.2.3.0,bus2=BBT2026450.1.2.3.0,Phases=3,Linecode=BT106_BT106_7_3_1,Length=0.034725000,Units=km
new line.1875880 bus1=BBT2026450.1.2.3.0,bus2=BBT2026457.1.2.3.0,Phases=3,Linecode=BT106_BT106_7_3_1,Length=0.037590000,Units=km
new line.1875908 bus1=BBT2026499.1.2.3.0,bus2=BBT2026492.1.2.3.0,Phases=3,Linecode=BT107_BT106_7_3_1,Length=0.034941000,Units=km
new line.1875915 bus1=BBT2026506.1.2.3.0,bus2=BBT2026499.1.2.3.0,Phases=3,Linecode=BT107_BT106_7_3_1,Length=0.036262000,Units=km
new line.1875922 bus1=BBT2026520.1.2.3.0,bus2=BBT2026506.1.2.3.0,Phases=3,Linecode=BT107_BT106_7_3_1,Length=0.036262000,Units=km
new line.1875929 bus1=BBT2026485.1.2.3.0,bus2=BBT2026527.1.2.3.0,Phases=3,Linecode=BT521_BT521_7_3_1,Length=0.000501000,Units=km
new line.1875936 bus1=BBT2026527.1.2.3.0,bus2=BBT2026534.1.2.3.0,Phases=3,Linecode=BT108_BT107_7_3_1,Length=0.034451000,Units=km
new line.1875943 bus1=BBT2026527.1.2.3.0,bus2=BBT2026562.1.2.3.0,Phases=3,Linecode=BT108_BT107_7_3_1,Length=0.036687000,Units=km
new line.1875950 bus1=BBT2026534.1.2.3.0,bus2=BBT2026541.1.2.3.0,Phases=3,Linecode=BT108_BT107_7_3_1,Length=0.029977000,Units=km
new line.1875957 bus1=BBT2026534.1.2.3.0,bus2=BBT2026520.1.2.3.0,Phases=3,Linecode=BT107_BT106_7_3_1,Length=0.038092000,Units=km
new line.1875964 bus1=BBT2026534.1.2.3.0,bus2=BBT2026548.1.2.3.0,Phases=3,Linecode=BT107_BT106_7_3_1,Length=0.034898000,Units=km
new line.1875971 bus1=BBT2026548.1.2.3.0,bus2=BBT2026555.1.2.3.0,Phases=3,Linecode=BT107_BT106_7_3_1,Length=0.034941000,Units=km
new line.1875978 bus1=BBT2026562.1.2.3.0,bus2=BBT2026569.1.2.3.0,Phases=3,Linecode=BT108_BT107_7_3_1,Length=0.033627000,Units=km
new line.1875985 bus1=BBT2026562.1.2.3.0,bus2=BBT2026576.1.2.3.0,Phases=3,Linecode=BT107_BT106_7_3_1,Length=0.038924000,Units=km
new line.1875992 bus1=BBT2026576.1.2.3.0,bus2=BBT2026513.1.2.3.0,Phases=3,Linecode=BT107_BT106_7_3_1,Length=0.035354000,Units=km
new line.1876006 bus1=BBT2026597.1.2.3.0,bus2=BBT2026604.1.2.3.0,Phases=3,Linecode=BT508_BT508_7_3_1,Length=0.000501000,Units=km
new line.1876027 bus1=BBT2026625.1.2.3.0,bus2=BBT2026632.1.2.3.0,Phases=3,Linecode=BT514_BT514_7_3_1,Length=0.000501000,Units=km
new line.1876041 bus1=BBT2026653.1.2.3.0,bus2=BBT2026660.1.2.3.0,Phases=3,Linecode=BT521_BT521_7_3_1,Length=0.000501000,Units=km
new line.1876048 bus1=BBT2026660.1.2.3.0,bus2=BBT2884111.1.2.3.0,Phases=3,Linecode=BT810_BT810_4_3_4,Length=0.018981000,Units=km
new line.1876062 bus1=BBT2026737.1.2.3.0,bus2=BBT2026744.1.2.3.0,Phases=3,Linecode=BT108_BT107_7_3_1,Length=0.039065000,Units=km
new line.1876069 bus1=BBT2026737.1.2.3.0,bus2=BBT2026793.1.2.3.0,Phases=3,Linecode=BT107_BT107_7_3_1,Length=0.023008000,Units=km
new line.1876076 bus1=BBT2026758.1.2.3.0,bus2=BBT2026765.1.2.3.0,Phases=3,Linecode=BT107_BT107_7_3_1,Length=0.024748000,Units=km
new line.1876083 bus1=BBT2026765.1.2.3.0,bus2=BBT2026772.1.2.3.0,Phases=3,Linecode=BT803_BT803_4_3_4,Length=0.039864000,Units=km
new line.1876090 bus1=BBT2026765.1.2.3.0,bus2=BBT2026779.1.2.3.0,Phases=3,Linecode=BT107_BT107_7_3_1,Length=0.029743000,Units=km
new line.1876097 bus1=BBT2026779.1.2.3.0,bus2=BBT2026786.1.2.3.0,Phases=3,Linecode=BT107_BT107_7_3_1,Length=0.032585000,Units=km
new line.1876104 bus1=BBT2026821.1.2.3.0,bus2=BBT2026835.1.2.3.0,Phases=3,Linecode=BT107_BT107_7_3_1,Length=0.024196000,Units=km
new line.1876111 bus1=BBT2031469.1.2.3.0,bus2=BBT2031476.1.2.3.0,Phases=3,Linecode=BT107_BT107_7_3_1,Length=0.028028000,Units=km
new line.1876118 bus1=BBT2026842.1.2.3.0,bus2=BBT2026821.1.2.3.0,Phases=3,Linecode=BT107_BT107_7_3_1,Length=0.029165000,Units=km
new line.1876125 bus1=BBT2026849.1.2.3.0,bus2=BBT2026842.1.2.3.0,Phases=3,Linecode=BT107_BT107_7_3_1,Length=0.037350000,Units=km
new line.1876132 bus1=BBT2026856.1.2.3.0,bus2=BBT2026737.1.2.3.0,Phases=3,Linecode=BT108_BT107_7_3_1,Length=0.035706000,Units=km
new line.1876139 bus1=BBT2026681.1.2.3.0,bus2=BBT2026856.1.2.3.0,Phases=3,Linecode=BT521_BT521_7_3_1,Length=0.000501000,Units=km
new line.1876146 bus1=BBT2026856.1.2.3.0,bus2=BBT2026863.1.2.3.0,Phases=3,Linecode=BT108_BT107_7_3_1,Length=0.039637000,Units=km
new line.1876153 bus1=BBT2026863.1.2.3.0,bus2=BBT2026849.1.2.3.0,Phases=3,Linecode=BT108_BT107_7_3_1,Length=0.039333000,Units=km
new line.1876160 bus1=BBT2026863.1.2.3.0,bus2=BBT2026870.1.2.3.0,Phases=3,Linecode=BT803_BT803_4_3_4,Length=0.030605000,Units=km
new line.1876167 bus1=BBT2026863.1.2.3.0,bus2=BBT2310125.1.2.3.0,Phases=3,Linecode=BT503_BT503_5_3_1,Length=0.004002000,Units=km
new line.1876174 bus1=BBT2026870.1.2.3.0,bus2=BBT2026828.1.2.3.0,Phases=3,Linecode=BT803_BT803_4_3_4,Length=0.028646000,Units=km
new line.1876188 bus1=BBT3983083.1.2.3.0,bus2=BBT3983090.1.2.3.0,Phases=3,Linecode=BT509_BT509_7_3_1,Length=0.000501000,Units=km
new line.1876223 bus1=BBT2026919.1.2.3.0,bus2=BBT2026933.1.2.3.0,Phases=3,Linecode=BT107_BT107_7_3_1,Length=0.029421000,Units=km
new line.1876230 bus1=BBT2026926.1.2.3.0,bus2=BBT2026912.1.2.3.0,Phases=3,Linecode=BT107_BT107_7_3_1,Length=0.031965000,Units=km
new line.1876237 bus1=BBT2026940.1.2.3.0,bus2=BBT2026905.1.2.3.0,Phases=3,Linecode=BT107_BT107_7_3_1,Length=0.033850000,Units=km
new line.1876244 bus1=BBT2026940.1.2.3.0,bus2=BBT2026919.1.2.3.0,Phases=3,Linecode=BT107_BT107_7_3_1,Length=0.033850000,Units=km
new line.1876258 bus1=BBT2026947.1.2.3.0,bus2=BBT2026940.1.2.3.0,Phases=3,Linecode=BT108_BT107_7_3_1,Length=0.026842000,Units=km
new line.1876265 bus1=BBT2026898.1.2.3.0,bus2=BBT2026947.1.2.3.0,Phases=3,Linecode=BT521_BT521_7_3_1,Length=0.000501000,Units=km
...